*PART, NAME=Clip 
*Node 
1,-1.500000,7.233000,-0.112061
2,1.500000,7.233000,-0.112061
3,-1.300000,7.233000,-0.112061
4,-1.100000,7.233000,-0.112061
5,-0.900000,7.233000,-0.112061
6,-0.700000,7.233000,-0.112061
7,-0.500000,7.233000,-0.112061
8,-0.300000,7.233000,-0.112061
9,-0.100000,7.233000,-0.112061
10,0.100000,7.233000,-0.112061
11,0.300000,7.233000,-0.112061
12,0.500000,7.233000,-0.112061
13,0.700000,7.233000,-0.112061
14,0.900000,7.233000,-0.112061
15,1.100000,7.233000,-0.112061
16,1.300000,7.233000,-0.112061
17,-1.500000,0.682000,-0.000000
18,-1.500000,7.028281,-0.108559
19,-1.500000,6.823562,-0.105057
20,-1.500000,6.618844,-0.101555
** ... 3526 like lines cut
*Element, type=R3D4
1,2,16,95,94
2,16,15,96,95
3,15,14,97,96
4,14,13,98,97
5,13,12,99,98
6,12,11,100,99
7,11,10,101,100
8,10,9,102,101
9,9,8,103,102
10,8,7,104,103
11,7,6,105,104
12,6,5,106,105
13,5,4,107,106
14,4,3,108,107
15,3,1,18,108
16,94,95,109,93
17,95,96,110,109
18,96,97,111,110
19,97,98,112,111
20,98,99,113,112
** ... 3524 like lines cut
*Nset, nset=Clip, generate
   1,  3546,    1
*Elset, elset=_Contact_Surf_SPOS, internal
1,2,3,4,5,6,7,8,9,10
11,12,13,14,15,16,17,18,19,20
21,22,23,24,25,26,27,28,29,30
31,32,33,34,35,36,37,38,39,40
41,42,43,44,45,46,47,48,49,50
51,52,53,54,55,56,57,58,59,60
61,62,63,64,65,66,67,68,69,70
71,72,73,74,75,76,77,78,79,80
81,82,83,84,85,86,87,88,89,90
91,92,93,94,95,96,97,98,99,100
101,102,103,104,105,106,107,108,109,110
111,112,113,114,115,116,117,118,119,120
121,122,123,124,125,126,127,128,129,130
131,132,133,134,135,136,137,138,139,140
141,142,143,144,145,146,147,148,149,150
151,152,153,154,155,156,157,158,159,160
161,162,163,164,165,166,167,168,169,170
171,172,173,174,175,176,177,178,179,180
181,182,183,184,185,186,187,188,189,190
191,192,193,194,195,196,197,198,199,200
** ... 127 like lines cut
*Elset, elset=_Slide_Surf_SPOS, internal
661,662,663,664,665,666,667,668,669,670
671,672,673,674,675,676,677,678,679,680
681,682,683,684,685,686,687,688,689,690
691,692,693,694,695,696,697,698,699,700
701,702,703,704,705,706,707,708,709,710
711,712,713,714,715,716,717,718,719,720
721,722,723,724,725,726,727,728,729,730
731,732,733,734,735,736,737,738,739,740
741,742,743,744,745,746,747,748,749,750
751,752,753,754,755,756,757,758,759,760
761,762,763,764,765,766,767,768,769,770
771,772,773,774,775,776,777,778,779,780
781,782,783,784,785,786,787,788,789,790
791,792,793,794,795,796,797,798,799,800
801,802,803,804,805,806,807,808,809,810
811,812,813,814,815,816,817,818,819,820
821,822,823,824,825,826,827,828,829,830
831,832,833,834,835,836,837,838,839,840
841,842,843,844,845,846,847,848,849,850
851,852,853,854,855,856,857,858,859,860
** ... 188 like lines cut
*Surface, type=ELEMENT, name=Contact_Surf
_Contact_Surf_SPOS, SPOS
*Surface, type=ELEMENT, name=Slide_Surf
_Slide_Surf_SPOS, SPOS
*End Part
*PART, NAME=Leaflet 
*NODE, NSET=Leaflet_Nodes 
1,-1.890750e-01,1.413066e+01,-1.499780e-01 
2,1.717393e+01,7.615590e-01,2.124198e+00 
3,3.128463e-01,1.420911e+01,-2.848377e-01 
4,8.169001e-01,1.426684e+01,-4.221006e-01 
5,1.325408e+00,1.429603e+01,-5.515572e-01 
6,1.838629e+00,1.429077e+01,-6.645000e-01 
7,2.353144e+00,1.426139e+01,-7.678732e-01 
8,2.866184e+00,1.422563e+01,-8.764619e-01 
9,3.375125e+00,1.420127e+01,-1.005223e+00 
10,3.875091e+00,1.420374e+01,-1.166914e+00 
11,4.365056e+00,1.422174e+01,-1.356293e+00 
12,4.849837e+00,1.422882e+01,-1.559219e+00 
13,5.333168e+00,1.420698e+01,-1.764502e+00 
14,5.815449e+00,1.416054e+01,-1.968235e+00 
15,6.297368e+00,1.409680e+01,-2.168151e+00 
16,6.778992e+00,1.401680e+01,-2.362846e+00 
17,7.259676e+00,1.391824e+01,-2.551224e+00 
18,7.738874e+00,1.379974e+01,-2.731736e+00 
19,8.216483e+00,1.366154e+01,-2.902151e+00 
20,8.692167e+00,1.350353e+01,-3.060271e+00 
** ... 24865 like lines cut
*NODE, NSET=Chordae_Nodes 
24886,-1.200000e+01,2.000000e+00,-1.600000e+01 
24887,-1.272888e+01,1.785187e+00,-1.500523e+01 
24888,-1.344588e+01,1.597705e+00,-1.400525e+01 
24889,-1.414031e+01,1.462210e+00,-1.299538e+01 
24890,-1.480365e+01,1.398269e+00,-1.197188e+01 
24891,-1.543047e+01,1.418444e+00,-1.093237e+01 
24892,-1.601886e+01,1.527065e+00,-9.876017e+00 
24893,-1.657072e+01,1.719802e+00,-8.803653e+00 
24894,-1.709151e+01,1.984093e+00,-7.717666e+00 
24895,-1.758971e+01,2.300371e+00,-6.621782e+00 
24896,-1.807604e+01,2.643980e+00,-5.520694e+00 
24897,1.122600e+00,1.451160e+01,-1.600000e+01 
24898,1.531842e+00,1.436876e+01,-1.535337e+01 
24899,1.886599e+00,1.424365e+01,-1.472617e+01 
24900,2.137722e+00,1.415225e+01,-1.413592e+01 
24901,2.246202e+00,1.410724e+01,-1.359653e+01 
24902,2.186997e+00,1.411677e+01,-1.311692e+01 
24903,1.951477e+00,1.418365e+01,-1.270017e+01 
24904,1.548272e+00,1.430507e+01,-1.234321e+01 
24905,1.002424e+00,1.447289e+01,-1.203711e+01 
** ... 1175 like lines cut
*ELEMENT, TYPE=C3D8R, ELSET=Septal_Leaflet_Elements 
14089,20684,20668,21501,20688,467,454,1290,468 
14090,21501,5209,20669,20688,1290,72,469,468 
14091,20668,5210,5209,21501,454,71,72,1290 
14092,21500,21457,21351,21259,1288,1289,1134,1043 
14093,21353,21500,21259,21260,1240,1288,1043,1044 
14094,21369,21499,21500,21353,1239,1286,1288,1240 
14095,21499,21456,21457,21500,1286,1287,1289,1288 
14096,21459,21455,21456,21499,1241,1238,1287,1286 
14097,21370,21459,21499,21369,1151,1241,1286,1239 
14098,21403,21404,21498,21436,1183,1184,1285,1206 
14099,21498,21350,21351,21436,1285,1133,1134,1206 
14100,21404,21349,21350,21498,1184,1132,1133,1285 
14101,21457,21435,21436,21351,1289,1219,1206,1134 
14102,21352,21261,21262,21263,1135,1045,1046,1047 
14103,21330,21422,21497,21329,1115,1202,1284,1114 
14104,21497,21348,21328,21329,1284,1131,1113,1114 
14105,21422,21347,21348,21497,1202,1130,1131,1284 
14106,21421,21422,21330,21331,1201,1202,1115,1116 
14107,21288,21421,21331,21287,1072,1201,1116,1071 
14108,21194,21127,21128,21129,978,912,913,914 
** ... 4812 like lines cut
*ELEMENT, TYPE=C3D8R, ELSET=Posterior_Leaflet_Elements 
1,5816,5817,5818,5977,1676,1677,1678,1839 
2,5815,5816,5977,5975,1675,1676,1839,1838 
3,6352,6401,6384,6351,2213,2266,2243,2212 
4,6401,6400,6382,6384,2266,2265,2242,2243 
5,6400,6393,6381,6382,2265,2258,2241,2242 
6,6401,6352,6353,6373,2266,2213,2253,2232 
7,6400,6401,6373,6372,2265,2266,2232,2233 
8,6393,6400,6372,6374,2258,2265,2233,2234 
9,6399,6300,6260,6262,2123,2161,2122,2264 
10,6246,6247,6300,6399,2263,2162,2161,2123 
11,6245,6246,6399,6262,2105,2263,2123,2264 
12,6213,6195,6196,6197,2070,2071,2054,2055 
13,6197,6198,6199,6213,2055,2056,2031,2070 
14,6045,5970,5941,5940,1907,1833,1803,1804 
15,6045,6046,6080,6042,1907,1908,2074,1906 
16,6059,6154,6153,6058,2010,2011,2009,1919 
17,6060,5975,5977,5976,1920,1838,1839,1840 
18,5964,5965,6103,6156,1960,1828,2013,2014 
19,5867,5868,5963,5866,1727,1728,1827,1726 
20,6056,5950,6398,5953,1814,1813,2262,1815 
** ... 3684 like lines cut
*ELEMENT, TYPE=C3D8R, ELSET=Anterior_Leaflet_Elements 
3705,12407,12499,12459,12406,4913,4949,4912,4856 
3706,12408,12350,12413,12461,4914,4797,4864,4916 
3707,11688,12274,12272,11813,4137,4726,4259,4258 
3708,11149,11150,12514,11422,3606,3607,4977,3876 
3709,12514,11152,11450,11422,4977,3609,3877,3876 
3710,11150,11151,11152,12514,3607,3608,3609,4977 
3711,12513,12479,12501,12498,4976,4936,4958,4950 
3712,12513,12493,12478,12479,4976,4944,4935,4936 
3713,12513,12491,12472,12493,4976,4951,4927,4944 
3714,12513,12498,12490,12491,4976,4950,4915,4951 
3715,12491,12469,12470,12472,4951,4925,4926,4927 
3716,12490,12498,12408,12461,4915,4950,4914,4916 
3717,12499,12497,12458,12459,4949,4948,4911,4912 
3718,12432,12392,12370,12371,4886,4842,4818,4819 
3719,12431,12432,12371,12434,4885,4886,4819,4931 
3720,12463,12464,12512,12488,4919,4920,4975,4943 
3721,12512,12415,12465,12488,4975,4866,4921,4943 
3722,12464,12319,12415,12512,4920,4769,4866,4975 
3723,12433,12372,12373,12374,4887,4820,4821,4822 
3724,12421,11806,11807,12369,4874,4251,4252,4817 
** ... 10364 like lines cut
*ELEMENT, TYPE=T3D2, ELSET=Chordae_Elements 
18921, 24886, 24887 
18922, 24887, 24888 
18923, 24888, 24889 
18924, 24889, 24890 
18925, 24890, 24891 
18926, 24891, 24892 
18927, 24892, 24893 
18928, 24893, 24894 
18929, 24894, 24895 
18930, 24895, 5226 
18931, 24897, 24898 
18932, 24898, 24899 
18933, 24899, 24900 
18934, 24900, 24901 
18935, 24901, 24902 
18936, 24902, 24903 
18937, 24903, 24904 
18938, 24904, 24905 
18939, 24905, 24906 
18940, 24906, 5142 
** ... 1764 like lines cut
*NSET, NSET=Outer_Annular_Nodes 
4978,4979,4980,4981,4982,4983,
4984,4985,4986,4987,4988,4989,
4990,4991,4992,4993,4994,4995,
4996,4997,4998,4999,5000,5001,
5002,5003,5004,5005,5006,5007,
5008,5009,5010,5011,5012,5013,
5014,5015,5016,5017,5018,8970,
8971,8972,8973,8974,8975,8976,
8977,8978,8979,8980,8981,8982,
8983,8984,8985,8986,8987,8988,
8989,8990,8991,8992,8993,8994,
8995,8996,8997,8998,8999,9000,
9001,9002,9003,9004,9005,9006,
9007,9008,9009,9010,9011,9012,
9013,9014,9015,9016,9017,9018,
9019,9020,9021,9022,9023,9024,
9025,9026,9027,9028,9029,9030,
9031,9032,9033,9034,9035,9036,
9037,9038,9039,9040,9041,9042,
9043,9044,9045,9046,9047,9048,
** ... 14 like lines cut
*NSET, NSET=Outer_Free_Edge_Nodes 
5142,5226,5227,5228,5229,5230,
5231,5232,5233,5234,5235,5236,
5237,5238,5239,5240,5241,5242,
5243,5244,5245,5246,5247,5248,
5249,5250,5251,5252,5253,5254,
5255,5256,5257,5258,5259,5260,
5261,5262,5263,5264,5265,5266,
5267,5268,5269,5270,5271,5272,
5273,5274,5275,5276,5277,5278,
5279,5280,5281,5282,5283,5284,
5285,5286,5287,5288,5289,5290,
5291,5292,9406,9407,9408,9409,
9410,9411,9412,9413,9414,9415,
9416,9417,9418,9419,9420,9421,
9422,9423,9424,9425,9426,9427,
9428,9429,9430,9431,9432,9433,
9434,9435,9436,9437,9438,9439,
9440,9441,9442,9443,9444,9445,
9446,9447,9448,9449,9450,9451,
9452,9453,9454,9455,9456,9457,
** ... 29 like lines cut
*ELSET, ELSET=Outer_Septal_Leaflet_Elements 
2779,2780,2781,2782,2783,2784,
2785,2786,2787,2788,2789,2790,
2791,2792,2793,2794,2795,2796,
2797,2798,2799,2800,2801,2802,
2803,2804,2805,2806,2807,2808,
2809,2810,2811,2812,2813,2814,
2815,2816,2817,2818,2819,2820,
2821,2822,2823,2824,2825,2826,
2827,2828,2829,2830,2831,2832,
2833,2834,2835,2836,2837,2838,
2839,2840,2841,2842,2843,2844,
2845,2846,2847,2848,2849,2850,
2851,2852,2853,2854,2855,2856,
2857,2858,2859,2860,2861,2862,
2863,2864,2865,2866,2867,2868,
2869,2870,2871,2872,2873,2874,
2875,2876,2877,2878,2879,2880,
2881,2882,2883,2884,2885,2886,
2887,2888,2889,2890,2891,2892,
2893,2894,2895,2896,2897,2898,
** ... 135 like lines cut
*ELSET, ELSET=Outer_Posterior_Leaflet_Elements 
11493,11494,11495,11496,11497,11498,
11499,11500,11501,11502,11503,11504,
11505,11506,11507,11508,11509,11510,
11511,11512,11513,11514,11515,11516,
11517,11518,11519,11520,11521,11522,
11523,11524,11525,11526,11527,11528,
11529,11530,11531,11532,11533,11534,
11535,11536,11537,11538,11539,11540,
11541,11542,11543,11544,11545,11546,
11547,11548,11549,11550,11551,11552,
11553,11554,11555,11556,11557,11558,
11559,11560,11561,11562,11563,11564,
11565,11566,11567,11568,11569,11570,
11571,11572,11573,11574,11575,11576,
11577,11578,11579,11580,11581,11582,
11583,11584,11585,11586,11587,11588,
11589,11590,11591,11592,11593,11594,
11595,11596,11597,11598,11599,11600,
11601,11602,11603,11604,11605,11606,
11607,11608,11609,11610,11611,11612,
** ... 413 like lines cut
*ELSET, ELSET=Outer_Anterior_Leaflet_Elements 
17713,17714,17715,17716,17717,17718,
17719,17720,17721,17722,17723,17724,
17725,17726,17727,17728,17729,17730,
17731,17732,17733,17734,17735,17736,
17737,17738,17739,17740,17741,17742,
17743,17744,17745,17746,17747,17748,
17749,17750,17751,17752,17753,17754,
17755,17756,17757,17758,17759,17760,
17761,17762,17763,17764,17765,17766,
17767,17768,17769,17770,17771,17772,
17773,17774,17775,17776,17777,17778,
17779,17780,17781,17782,17783,17784,
17785,17786,17787,17788,17789,17790,
17791,17792,17793,17794,17795,17796,
17797,17798,17799,17800,17801,17802,
17803,17804,17805,17806,17807,17808,
17809,17810,17811,17812,17813,17814,
17815,17816,17817,17818,17819,17820,
17821,17822,17823,17824,17825,17826,
17827,17828,17829,17830,17831,17832,
** ... 182 like lines cut
*ELSET, ELSET=Inner_Septal_Leaflet_Elements 
1,2,3,4,5,6,
7,8,9,10,11,12,
13,14,15,16,17,18,
19,20,21,22,23,24,
25,26,27,28,29,30,
31,32,33,34,35,36,
37,38,39,40,41,42,
43,44,45,46,47,48,
49,50,51,52,53,54,
55,56,57,58,59,60,
61,62,63,64,65,66,
67,68,69,70,71,72,
73,74,75,76,77,78,
79,80,81,82,83,84,
85,86,87,88,89,90,
91,92,93,94,95,96,
97,98,99,100,101,102,
103,104,105,106,107,108,
109,110,111,112,113,114,
115,116,117,118,119,120,
** ... 135 like lines cut
*ELSET, ELSET=Inner_Posterior_Leaflet_Elements 
3705,3706,3707,3708,3709,3710,
3711,3712,3713,3714,3715,3716,
3717,3718,3719,3720,3721,3722,
3723,3724,3725,3726,3727,3728,
3729,3730,3731,3732,3733,3734,
3735,3736,3737,3738,3739,3740,
3741,3742,3743,3744,3745,3746,
3747,3748,3749,3750,3751,3752,
3753,3754,3755,3756,3757,3758,
3759,3760,3761,3762,3763,3764,
3765,3766,3767,3768,3769,3770,
3771,3772,3773,3774,3775,3776,
3777,3778,3779,3780,3781,3782,
3783,3784,3785,3786,3787,3788,
3789,3790,3791,3792,3793,3794,
3795,3796,3797,3798,3799,3800,
3801,3802,3803,3804,3805,3806,
3807,3808,3809,3810,3811,3812,
3813,3814,3815,3816,3817,3818,
3819,3820,3821,3822,3823,3824,
** ... 413 like lines cut
*ELSET, ELSET=Inner_Anterior_Leaflet_Elements 
14089,14090,14091,14092,14093,14094,
14095,14096,14097,14098,14099,14100,
14101,14102,14103,14104,14105,14106,
14107,14108,14109,14110,14111,14112,
14113,14114,14115,14116,14117,14118,
14119,14120,14121,14122,14123,14124,
14125,14126,14127,14128,14129,14130,
14131,14132,14133,14134,14135,14136,
14137,14138,14139,14140,14141,14142,
14143,14144,14145,14146,14147,14148,
14149,14150,14151,14152,14153,14154,
14155,14156,14157,14158,14159,14160,
14161,14162,14163,14164,14165,14166,
14167,14168,14169,14170,14171,14172,
14173,14174,14175,14176,14177,14178,
14179,14180,14181,14182,14183,14184,
14185,14186,14187,14188,14189,14190,
14191,14192,14193,14194,14195,14196,
14197,14198,14199,14200,14201,14202,
14203,14204,14205,14206,14207,14208,
** ... 182 like lines cut
*ELSET, ELSET=Posterior_Chordae 
18921,18922,18923,18924,18925,18926, 
18927,18928,18929,18930,18951,18952, 
18953,18954,18963,18964,18965,18966, 
18967,18968,18969,18970,18971,18972, 
19014,19015,19016,19017,19018,19019, 
19020,19021,19022,19023,19024,19025, 
19026,19027,19028,19029,19030,19031, 
19032,19033,19034,19035,19036,19037, 
19038,19039,19120,19121,19122,19123, 
19124,19125,19126,19127,19128,19129, 
19130,19131,19132,19133,19134,19135, 
19136,19137,19138,19139,19140,19141, 
19142,19143,19144,19145,19146,19147, 
19148,19149,19150,19151,19152,19153, 
19154,19155,19156,19157,19158,19159, 
19160,19161,19162,19163,19164,19165, 
19166,19167,19168,19169,19290,19291, 
19292,19293,19294,19295,19296,19297, 
19298,19299,19300,19301,19302,19303, 
19304,19305,19306,19307,19308,19309, 
** ... 22 like lines cut
*ELSET, ELSET=Septal_Chordae 
18931,18932,18933,18934,18935,18936, 
18937,18938,18939,18940,18955,18956, 
18957,18958,18993,18994,18995,18996, 
18997,18998,18999,19000,19001,19002, 
19003,19004,19005,19006,19007,19008, 
19009,19010,19011,19012,19076,19077, 
19078,19079,19080,19081,19082,19083, 
19084,19085,19086,19087,19088,19089, 
19090,19091,19092,19093,19094,19095, 
19096,19097,19098,19099,19100,19101, 
19102,19103,19104,19105,19106,19107, 
19108,19109,19110,19111,19112,19113, 
19114,19115,19116,19117,19118,19119, 
19170,19171,19172,19173,19174,19175, 
19176,19177,19178,19179,19180,19181, 
19182,19183,19184,19185,19186,19187, 
19188,19189,19190,19191,19192,19193, 
19194,19195,19196,19197,19198,19199, 
19200,19201,19202,19203,19204,19205, 
19206,19207,19208,19209,19210,19211, 
** ... 129 like lines cut
*ELSET, ELSET=Anterior_Chordae 
18941,18942,18943,18944,18945,18946, 
18947,18948,18949,18950,18959,18960, 
18961,18962,18973,18974,18975,18976, 
18977,18978,18979,18980,18981,18982, 
18983,18984,18985,18986,18987,18988, 
18989,18990,18991,18992,19040,19041, 
19042,19043,19044,19045,19046,19047, 
19048,19049,19050,19051,19052,19053, 
19054,19055,19056,19057,19058,19059, 
19060,19061,19062,19063,19064,19065, 
19066,19067,19068,19069,19070,19071, 
19072,19073,19074,19075,19240,19241, 
19242,19243,19244,19245,19246,19247, 
19248,19249,19250,19251,19252,19253, 
19254,19255,19256,19257,19258,19259, 
19260,19261,19262,19263,19264,19265, 
19266,19267,19268,19269,19270,19271, 
19272,19273,19274,19275,19276,19277, 
19278,19279,19280,19281,19282,19283, 
19284,19285,19286,19287,19288,19289, 
** ... 88 like lines cut
*Distribution, name=Ori-1-DiscOrient, location=ELEMENT, Table=Ori-1-DiscOrient_Table
,           1.,           0.,           0.,           0.,           1.,           0.
1,-0.815489,-0.578773,0.000000,0.000000,0.000000,1.000000
2,-0.815339,-0.578984,0.000000,0.000000,0.000000,1.000000
3,-0.815771,-0.578375,0.000000,0.000000,0.000000,1.000000
4,-0.815787,-0.578352,0.000000,0.000000,0.000000,1.000000
5,-0.815788,-0.578351,0.000000,0.000000,0.000000,1.000000
6,-0.817696,-0.575650,0.000000,0.000000,0.000000,1.000000
7,-0.817612,-0.575770,0.000000,0.000000,0.000000,1.000000
8,-0.817419,-0.576043,0.000000,0.000000,0.000000,1.000000
9,-0.836363,-0.548176,0.000000,0.000000,0.000000,1.000000
10,-0.841023,-0.541000,0.000000,0.000000,0.000000,1.000000
11,-0.838810,-0.544424,0.000000,0.000000,0.000000,1.000000
12,-0.770507,-0.637432,0.000000,0.000000,0.000000,1.000000
13,-0.750937,-0.660374,0.000000,0.000000,0.000000,1.000000
14,-0.787348,-0.616509,0.000000,0.000000,0.000000,1.000000
15,-0.800157,-0.599791,0.000000,0.000000,0.000000,1.000000
16,-0.819593,-0.572946,0.000000,0.000000,0.000000,1.000000
17,-0.815684,-0.578497,0.000000,0.000000,0.000000,1.000000
18,-0.827133,-0.562006,0.000000,0.000000,0.000000,1.000000
19,-0.827720,-0.561142,0.000000,0.000000,0.000000,1.000000
20,-0.828275,-0.560322,0.000000,0.000000,0.000000,1.000000
** ... 3684 like lines cut
*Orientation, name=Ori-1, system=RECTANGULAR, local directions=2
Ori-1-DiscOrient
3, 0.
-0.681020,0.732265,0.0
-0.681020,-0.732265,0.0
*Solid Section, elset=POSTERIOR_LEAFLET_ELEMENTS, orientation=Ori-1, material=VUANISO_Posterior
,
*Distribution, name=Ori-3-DiscOrient, location=ELEMENT, Table=Ori-3-DiscOrient_Table
,           1.,           0.,           0.,           0.,           1.,           0.
3705,0.566715,-0.823914,-0.000000,0.000000,0.000000,1.000000
3706,0.608175,-0.793803,-0.000000,0.000000,0.000000,1.000000
3707,0.980601,0.196014,-0.000000,0.000000,0.000000,1.000000
3708,0.443132,0.896457,-0.000000,0.000000,0.000000,1.000000
3709,0.442149,0.896942,-0.000000,0.000000,0.000000,1.000000
3710,0.414548,0.910028,-0.000000,0.000000,0.000000,1.000000
3711,0.542149,-0.840282,-0.000000,0.000000,0.000000,1.000000
3712,0.542668,-0.839947,-0.000000,0.000000,0.000000,1.000000
3713,0.577167,-0.816626,-0.000000,0.000000,0.000000,1.000000
3714,0.576657,-0.816986,-0.000000,0.000000,0.000000,1.000000
3715,0.598368,-0.801221,-0.000000,0.000000,0.000000,1.000000
3716,0.595387,-0.803439,-0.000000,0.000000,0.000000,1.000000
3717,0.546552,-0.837425,-0.000000,0.000000,0.000000,1.000000
3718,0.630226,-0.776412,-0.000000,0.000000,0.000000,1.000000
3719,0.615513,-0.788127,-0.000000,0.000000,0.000000,1.000000
3720,0.694637,-0.719360,-0.000000,0.000000,0.000000,1.000000
3721,0.693877,-0.720094,-0.000000,0.000000,0.000000,1.000000
3722,0.711307,-0.702881,-0.000000,0.000000,0.000000,1.000000
3723,0.569649,-0.821888,-0.000000,0.000000,0.000000,1.000000
3724,0.925162,0.379574,-0.000000,0.000000,0.000000,1.000000
** ... 10364 like lines cut
*Orientation, name=Ori-3, system=RECTANGULAR, local directions=2
Ori-3-DiscOrient
1, 0.
-1.000000,-0.000000,0.0
-1.000000,0.000000,0.0
*Solid Section, elset=ANTERIOR_LEAFLET_ELEMENTS, orientation=Ori-3, material=VUANISO_Anterior
,
*Distribution, name=Ori-2-DiscOrient, location=ELEMENT, Table=Ori-2-DiscOrient_Table
,           1.,           0.,           0.,           0.,           1.,           0.
14089,-0.994569,-0.104081,0.000000,0.000000,0.000000,1.000000
14090,-0.991573,-0.129551,0.000000,0.000000,0.000000,1.000000
14091,-0.986572,-0.163324,0.000000,0.000000,0.000000,1.000000
14092,-0.713372,0.700786,-0.000000,0.000000,0.000000,1.000000
14093,-0.741021,0.671482,-0.000000,0.000000,0.000000,1.000000
14094,-0.758944,0.651155,-0.000000,0.000000,0.000000,1.000000
14095,-0.731131,0.682237,-0.000000,0.000000,0.000000,1.000000
14096,-0.749793,0.661672,-0.000000,0.000000,0.000000,1.000000
14097,-0.777909,0.628377,-0.000000,0.000000,0.000000,1.000000
14098,-0.651345,0.758782,-0.000000,0.000000,0.000000,1.000000
14099,-0.658151,0.752886,-0.000000,0.000000,0.000000,1.000000
14100,-0.642579,0.766220,-0.000000,0.000000,0.000000,1.000000
14101,-0.691033,0.722823,-0.000000,0.000000,0.000000,1.000000
14102,-0.793877,0.608078,-0.000000,0.000000,0.000000,1.000000
14103,-0.999999,-0.001640,0.000000,0.000000,0.000000,1.000000
14104,-0.999755,-0.022144,0.000000,0.000000,0.000000,1.000000
14105,-0.999794,-0.020293,0.000000,0.000000,0.000000,1.000000
14106,-0.999710,0.024068,-0.000000,0.000000,0.000000,1.000000
14107,-0.999078,0.042927,-0.000000,0.000000,0.000000,1.000000
14108,-0.880379,0.474271,-0.000000,0.000000,0.000000,1.000000
** ... 4812 like lines cut
*Orientation, name=Ori-2, system=RECTANGULAR, local directions=1
Ori-2-DiscOrient
3, 0.
1.000000,0.000000,0.0
*Solid Section, elset=SEPTAL_LEAFLET_ELEMENTS, orientation=Ori-2, material=VUANISO_Septal
,
*Solid Section, elset=Anterior_Chordae, material=Anterior_Chordae
0.330301, 
*Solid Section, elset=Posterior_Chordae, material=Posterior_Chordae
0.31889, 
*Solid Section, elset=Septal_Chordae, material=Septal_Chordae
0.398557, 
*End Part 
*Assembly, name=Valve_Assembly 
*Instance, name=Leaflet_Instance, part=Leaflet 
*End Instance 
*Instance, name=Clip-1-1, part=Clip
13.302543,-0.567871,-16.243953
13.302543,-0.567871,-16.243953,14.017158,-0.408135,-15.562918,36.341282
*End Instance
*Instance, name=Clip-1-2, part=Clip
13.897457,-1.832129,-16.156047
13.897457,-1.832129,-16.156047,13.961929,-2.120560,-17.111374,155.892082
*End Instance
*Node
1,13.302543,-0.567871,-16.243953
2,13.897457,-1.832129,-16.156047
*Nset, nset=b_Set-1-1, instance=Clip-1-1, generate
   1,  3546,    1
*Elset, elset=b_Set-1-1, instance=Clip-1-1, generate
   1,  3544,    1
*Nset, nset=b_Set-1-2, instance=Clip-1-2, generate
   1,  3546,    1
*Elset, elset=b_Set-1-2, instance=Clip-1-2, generate
   1,  3544,    1
*Nset, nset=Clip-1-1_RPset, internal
 1
*Nset, nset=Clip-1-2_RPset, internal
 2
*Rigid Body, ref node=Clip-1-1_RPset, elset=b_Set-1-1
*Rigid Body, ref node=Clip-1-2_RPset, elset=b_Set-1-2
*Nset, nset=Wire-1-Set-1-1
*Nset, nset=Wire-1-Set-1-1
 1, 2
*Elset, elset=Wire-1-Set-1-1
*Elset, elset=Wire-1-Set-1-1
 1,
*Element, type=CONN3D2
1, 1, 2
*Connector Section, elset=Wire-1-Set-1-1
Slot,
"Datum csys-1-2",
*Nset, nset="_T-Datum csys-1-2", internal
CLIP-1-2_RPSET, 
CLIP-1-1_RPSET, 
*Transform, nset="_T-Datum csys-1-2"
-0.594915,1.264258,-0.087907,-0.381376,0.810464,0.444635
*Orientation, name="Datum csys-1-2"
-0.594915,1.264258,-0.087907,-0.381376,0.810464,0.444635
1, 0.
*Instance, name=Clip-2-1, part=Clip
6.877486,-2.915578,-19.924747
6.877486,-2.915578,-19.924747,7.809277,-3.266287,-19.831108,51.823120
*End Instance
*Instance, name=Clip-2-2, part=Clip
6.722514,-4.284422,-19.675253
6.722514,-4.284422,-19.675253,6.609738,-3.705387,-18.867788,167.108494
*End Instance
*Node
3,6.877486,-2.915578,-19.924747
4,6.722514,-4.284422,-19.675253
*Nset, nset=b_Set-2-1, instance=Clip-2-1, generate
   1,  3546,    1
*Elset, elset=b_Set-2-1, instance=Clip-2-1, generate
   1,  3544,    1
*Nset, nset=b_Set-2-2, instance=Clip-2-2, generate
   1,  3546,    1
*Elset, elset=b_Set-2-2, instance=Clip-2-2, generate
   1,  3544,    1
*Nset, nset=Clip-2-1_RPset, internal
 3
*Nset, nset=Clip-2-2_RPset, internal
 4
*Rigid Body, ref node=Clip-2-1_RPset, elset=b_Set-2-1
*Rigid Body, ref node=Clip-2-2_RPset, elset=b_Set-2-2
*Nset, nset=Wire-1-Set-1-2
*Nset, nset=Wire-1-Set-1-2
 3, 4
*Elset, elset=Wire-1-Set-1-2
*Elset, elset=Wire-1-Set-1-2
 2,
*Element, type=CONN3D2
2, 3, 4
*Connector Section, elset=Wire-1-Set-1-2
Slot,
"Datum csys-2-2",
*Nset, nset="_T-Datum csys-2-2", internal
CLIP-2-2_RPSET, 
CLIP-2-1_RPSET, 
*Transform, nset="_T-Datum csys-2-2"
0.154971,1.368845,-0.249494,-0.198413,0.665065,0.719945
*Orientation, name="Datum csys-2-2"
0.154971,1.368845,-0.249494,-0.198413,0.665065,0.719945
1, 0.
*Elset, elset=_LEAFLET_RIM_TIP_S3, internal, instance=LEAFLET_INSTANCE
805,806,807,808,809,810,
811,862,864,865,866,867,
868,869,870,871,873,874,
875,876,877,878,879,880,
881,882,883,884,885,886,
887,888,889,890,891,892,
893,894,895,896,897,898,
899,900,901,902,903,904,
905,906,907,908,909,910,
911,912,913,914,915,916,
917,918,919,920,921,1731,
1732,1733,1734,1735,1736,1737,
1788,1790,1791,1792,1793,1794,
1795,1796,1797,1799,1800,1801,
1802,1803,1804,1805,1806,1807,
1808,1809,1810,1811,1812,1813,
1814,1815,1816,1817,1818,1819,
1820,1821,1822,1823,1824,1825,
1826,1827,1828,1829,1830,1831,
1832,1833,1834,1835,1836,1837,
** ... 172 like lines cut

*Elset, elset=_LEAFLET_RIM_TIP_S5, internal, instance=LEAFLET_INSTANCE
924,926,1850,1852,2776,2778,
3702,3704,6298,6300,8894,8896,
11490,11492,14086,14088,
*Surface, type=ELEMENT, name=LEAFLET_RIM_TIP
_LEAFLET_RIM_TIP_S3, S3
_LEAFLET_RIM_TIP_S5, S5
*Surface, type=ELEMENT, name=Leaflet_Surfaces_Outer 
Leaflet_Instance.Outer_Anterior_Leaflet_Elements, S1 
Leaflet_Instance.Outer_Posterior_Leaflet_Elements, S1 
Leaflet_Instance.Outer_Septal_Leaflet_Elements, S1 
*Surface, type=ELEMENT, name=Leaflet_Surfaces_Inner 
Leaflet_Instance.Inner_Anterior_Leaflet_Elements, S2 
Leaflet_Instance.Inner_Posterior_Leaflet_Elements, S2 
Leaflet_Instance.Inner_Septal_Leaflet_Elements, S2 
*End Assembly 
*Distribution Table, name=Ori-1-DiscOrient_Table
coord3D, coord3D
*Distribution Table, name=Ori-3-DiscOrient_Table
coord3D, coord3D
*Distribution Table, name=Ori-2-DiscOrient_Table
coord3D, coord3D
*Surface Interaction, name=Rough_Interaction
*Friction, rough
*Surface Behavior, no separation, pressure-overclosure=HARD
*Boundary 
Clip-1-2_RPSet, 1, 1
Clip-1-2_RPSet, 2, 2
Clip-1-2_RPSet, 3, 3
Clip-1-2_RPSet, 4, 4
Clip-1-2_RPSet, 5, 5
*Boundary 
Clip-1-1_RPSet, 1, 1
Clip-1-1_RPSet, 2, 2
Clip-1-1_RPSet, 3, 3
Clip-1-1_RPSet, 4, 4
Clip-1-1_RPSet, 5, 5
*Boundary 
Clip-2-2_RPSet, 1, 1
Clip-2-2_RPSet, 2, 2
Clip-2-2_RPSet, 3, 3
Clip-2-2_RPSet, 4, 4
Clip-2-2_RPSet, 5, 5
*Boundary 
Clip-2-1_RPSet, 1, 1
Clip-2-1_RPSet, 2, 2
Clip-2-1_RPSet, 3, 3
Clip-2-1_RPSet, 4, 4
Clip-2-1_RPSet, 5, 5
*Amplitude, name=Amp-1, definition=SMOOTH STEP  
0.5,  0.,  1.,  1. 
*Amplitude, name=Amp-2, definition=SMOOTH STEP  
0.,  0.,  0.5,  1. 
*Amplitude, name=Amp-3, definition=SMOOTH STEP  
0.,  0.,  0.5,  1. 
*Amplitude, name=s2_Amp-1, definition=SMOOTH STEP  
0.0,  1.,  0.5,  0. 
*Material, name=Anterior_Chordae 
*Density 
1e-9 
*Hyperelastic, OGDEN, N=3 
4.212040401935249, 50.429918536038890, 7.621400389279001, 0.016468374322372, 15.437445816336888, 50.430469783405819, 7.3584e-04, 0
  0.,
*Material, name=Posterior_Chordae 
*Density 
1e-9 
*Hyperelastic, OGDEN, N=3 
11.769785736240605, 49.080735360723722, 12.403984726216267, 49.080695323191264, 12.399238638580865, 49.080697291677922, 5.4868e-04, 0
  0.,
*Material, name=Septal_Chordae 
*Density 
1e-9 
*Hyperelastic, OGDEN, N=3 
43.040245810758144, 0.000113878800484, 0.000135787756161, 0.004100909221214, 0.000293121663589, 0.054406871730778, 4.6623e-04, 0
  0.,
*Material, name=VUANISO_Anterior
*Density
1e-09,
*anisotropic hyperelastic, user,formulation=invariant, local directions=1, type=compressible, properties=4
1.000000e-03,      20.0669, 1.188659e-04,     1.5260081e+01
*Material, name=VUANISO_Psoterior
*Density
1e-09,
*anisotropic hyperelastic, user,formulation=invariant, local directions=1, type=compressible, properties=4
1.000000e-03,      20.0669, 2.204214e-04,     3.190703e+01
*Material, name=VUANISO_Septal
*Density
1e-09,
*anisotropic hyperelastic, user,formulation=invariant, local directions=1, type=compressible, properties=4
1.000000e-03,      20.0669, 1.984696e-04,     2.94597
*Surface Interaction, name=Interaction_Property 
1., 
*Friction 
0.001, 
*Surface Behavior, pressure-overclosure=HARD 
*Step, name="Annulus Approximation", nlgeom=YES 
*Dynamic, Explicit 
, 1. 
*Bulk Viscosity 
0.5, 1.2 
*VARIABLE MASS SCALING, TYPE=UNIFORM, FREQUENCY=10000, DT=5e-7
*Boundary,amplitude=Amp-3 
Leaflet_Instance.1,1,1,0.000000 
Leaflet_Instance.1,2,2,0.000000 
Leaflet_Instance.1,3,3,0.000000 
*Boundary,amplitude=Amp-3 
Leaflet_Instance.2,1,1,0.000000 
Leaflet_Instance.2,2,2,0.000000 
Leaflet_Instance.2,3,3,0.000000 
*Boundary,amplitude=Amp-3 
Leaflet_Instance.3,1,1,0.000000 
Leaflet_Instance.3,2,2,0.000000 
Leaflet_Instance.3,3,3,0.000000 
*Boundary,amplitude=Amp-3 
Leaflet_Instance.4,1,1,0.000000 
Leaflet_Instance.4,2,2,0.000000 
Leaflet_Instance.4,3,3,0.000000 
*Boundary,amplitude=Amp-3 
Leaflet_Instance.5,1,1,0.000000 
Leaflet_Instance.5,2,2,0.000000 
Leaflet_Instance.5,3,3,0.000000 
*Boundary,amplitude=Amp-3 
Leaflet_Instance.6,1,1,0.000000 
Leaflet_Instance.6,2,2,0.000000 
Leaflet_Instance.6,3,3,0.000000 
*Boundary,amplitude=Amp-3 
Leaflet_Instance.7,1,1,0.000000 
Leaflet_Instance.7,2,2,0.000000 
Leaflet_Instance.7,3,3,0.000000 
*Boundary,amplitude=Amp-3 
Leaflet_Instance.8,1,1,0.000000 
Leaflet_Instance.8,2,2,0.000000 
Leaflet_Instance.8,3,3,0.000000 
*Boundary,amplitude=Amp-3 
Leaflet_Instance.9,1,1,0.000000 
Leaflet_Instance.9,2,2,0.000000 
Leaflet_Instance.9,3,3,0.000000 
*Boundary,amplitude=Amp-3 
Leaflet_Instance.10,1,1,0.000000 
Leaflet_Instance.10,2,2,0.000000 
Leaflet_Instance.10,3,3,0.000000 
*Boundary,amplitude=Amp-3 
Leaflet_Instance.11,1,1,0.000000 
Leaflet_Instance.11,2,2,0.000000 
Leaflet_Instance.11,3,3,0.000000 
*Boundary,amplitude=Amp-3 
Leaflet_Instance.12,1,1,0.000000 
Leaflet_Instance.12,2,2,0.000000 
Leaflet_Instance.12,3,3,0.000000 
*Boundary,amplitude=Amp-3 
Leaflet_Instance.13,1,1,0.000000 
Leaflet_Instance.13,2,2,0.000000 
Leaflet_Instance.13,3,3,0.000000 
*Boundary,amplitude=Amp-3 
Leaflet_Instance.14,1,1,0.000000 
Leaflet_Instance.14,2,2,0.000000 
Leaflet_Instance.14,3,3,0.000000 
*Boundary,amplitude=Amp-3 
Leaflet_Instance.15,1,1,0.000000 
Leaflet_Instance.15,2,2,0.000000 
Leaflet_Instance.15,3,3,0.000000 
*Boundary,amplitude=Amp-3 
Leaflet_Instance.16,1,1,0.000000 
Leaflet_Instance.16,2,2,0.000000 
Leaflet_Instance.16,3,3,0.000000 
*Boundary,amplitude=Amp-3 
Leaflet_Instance.17,1,1,0.000000 
Leaflet_Instance.17,2,2,0.000000 
Leaflet_Instance.17,3,3,0.000000 
*Boundary,amplitude=Amp-3 
Leaflet_Instance.18,1,1,0.000000 
Leaflet_Instance.18,2,2,0.000000 
Leaflet_Instance.18,3,3,0.000000 
*Boundary,amplitude=Amp-3 
Leaflet_Instance.19,1,1,0.000000 
Leaflet_Instance.19,2,2,0.000000 
Leaflet_Instance.19,3,3,0.000000 
*Boundary,amplitude=Amp-3 
Leaflet_Instance.20,1,1,0.000000 
Leaflet_Instance.20,2,2,0.000000 
Leaflet_Instance.20,3,3,0.000000 
*Boundary,amplitude=Amp-3 
Leaflet_Instance.21,1,1,0.000000 
Leaflet_Instance.21,2,2,0.000000 
Leaflet_Instance.21,3,3,0.000000 
*Boundary,amplitude=Amp-3 
Leaflet_Instance.22,1,1,0.000000 
Leaflet_Instance.22,2,2,0.000000 
Leaflet_Instance.22,3,3,0.000000 
*Boundary,amplitude=Amp-3 
Leaflet_Instance.23,1,1,0.000000 
Leaflet_Instance.23,2,2,0.000000 
Leaflet_Instance.23,3,3,0.000000 
*Boundary,amplitude=Amp-3 
Leaflet_Instance.24,1,1,0.000000 
Leaflet_Instance.24,2,2,0.000000 
Leaflet_Instance.24,3,3,0.000000 
*Boundary,amplitude=Amp-3 
Leaflet_Instance.25,1,1,0.000000 
Leaflet_Instance.25,2,2,0.000000 
Leaflet_Instance.25,3,3,0.000000 
*Boundary,amplitude=Amp-3 
Leaflet_Instance.26,1,1,0.000000 
Leaflet_Instance.26,2,2,0.000000 
Leaflet_Instance.26,3,3,0.000000 
*Boundary,amplitude=Amp-3 
Leaflet_Instance.27,1,1,0.000000 
Leaflet_Instance.27,2,2,0.000000 
Leaflet_Instance.27,3,3,0.000000 
*Boundary,amplitude=Amp-3 
Leaflet_Instance.28,1,1,0.000000 
Leaflet_Instance.28,2,2,0.000000 
Leaflet_Instance.28,3,3,0.000000 
*Boundary,amplitude=Amp-3 
Leaflet_Instance.29,1,1,0.000000 
Leaflet_Instance.29,2,2,0.000000 
Leaflet_Instance.29,3,3,0.000000 
*Boundary,amplitude=Amp-3 
Leaflet_Instance.30,1,1,0.000000 
Leaflet_Instance.30,2,2,0.000000 
Leaflet_Instance.30,3,3,0.000000 
*Boundary,amplitude=Amp-3 
Leaflet_Instance.31,1,1,0.000000 
Leaflet_Instance.31,2,2,0.000000 
Leaflet_Instance.31,3,3,0.000000 
*Boundary,amplitude=Amp-3 
Leaflet_Instance.32,1,1,0.000000 
Leaflet_Instance.32,2,2,0.000000 
Leaflet_Instance.32,3,3,0.000000 
*Boundary,amplitude=Amp-3 
Leaflet_Instance.33,1,1,0.000000 
Leaflet_Instance.33,2,2,0.000000 
Leaflet_Instance.33,3,3,0.000000 
*Boundary,amplitude=Amp-3 
Leaflet_Instance.34,1,1,0.000000 
Leaflet_Instance.34,2,2,0.000000 
Leaflet_Instance.34,3,3,0.000000 
*Boundary,amplitude=Amp-3 
Leaflet_Instance.35,1,1,0.000000 
Leaflet_Instance.35,2,2,0.000000 
Leaflet_Instance.35,3,3,0.000000 
*Boundary,amplitude=Amp-3 
Leaflet_Instance.36,1,1,0.000000 
Leaflet_Instance.36,2,2,0.000000 
Leaflet_Instance.36,3,3,0.000000 
*Boundary,amplitude=Amp-3 
Leaflet_Instance.37,1,1,0.000000 
Leaflet_Instance.37,2,2,0.000000 
Leaflet_Instance.37,3,3,0.000000 
*Boundary,amplitude=Amp-3 
Leaflet_Instance.38,1,1,0.000000 
Leaflet_Instance.38,2,2,0.000000 
Leaflet_Instance.38,3,3,0.000000 
*Boundary,amplitude=Amp-3 
Leaflet_Instance.39,1,1,0.000000 
Leaflet_Instance.39,2,2,0.000000 
Leaflet_Instance.39,3,3,0.000000 
*Boundary,amplitude=Amp-3 
Leaflet_Instance.40,1,1,0.000000 
Leaflet_Instance.40,2,2,0.000000 
Leaflet_Instance.40,3,3,0.000000 
*Boundary,amplitude=Amp-3 
Leaflet_Instance.41,1,1,0.000000 
Leaflet_Instance.41,2,2,0.000000 
Leaflet_Instance.41,3,3,0.000000 
*Boundary,amplitude=Amp-3 
Leaflet_Instance.42,1,1,0.000000 
Leaflet_Instance.42,2,2,0.000000 
Leaflet_Instance.42,3,3,0.000000 
*Boundary,amplitude=Amp-3 
Leaflet_Instance.43,1,1,0.000000 
Leaflet_Instance.43,2,2,0.000000 
Leaflet_Instance.43,3,3,0.000000 
*Boundary,amplitude=Amp-3 
Leaflet_Instance.44,1,1,0.000000 
Leaflet_Instance.44,2,2,0.000000 
Leaflet_Instance.44,3,3,0.000000 
*Boundary,amplitude=Amp-3 
Leaflet_Instance.45,1,1,0.000000 
Leaflet_Instance.45,2,2,0.000000 
Leaflet_Instance.45,3,3,0.000000 
*Boundary,amplitude=Amp-3 
Leaflet_Instance.46,1,1,0.000000 
Leaflet_Instance.46,2,2,0.000000 
Leaflet_Instance.46,3,3,0.000000 
*Boundary,amplitude=Amp-3 
Leaflet_Instance.47,1,1,0.000000 
Leaflet_Instance.47,2,2,0.000000 
Leaflet_Instance.47,3,3,0.000000 
*Boundary,amplitude=Amp-3 
Leaflet_Instance.48,1,1,0.000000 
Leaflet_Instance.48,2,2,0.000000 
Leaflet_Instance.48,3,3,0.000000 
*Boundary,amplitude=Amp-3 
Leaflet_Instance.49,1,1,0.000000 
Leaflet_Instance.49,2,2,0.000000 
Leaflet_Instance.49,3,3,0.000000 
*Boundary,amplitude=Amp-3 
Leaflet_Instance.50,1,1,0.000000 
Leaflet_Instance.50,2,2,0.000000 
Leaflet_Instance.50,3,3,0.000000 
*Boundary,amplitude=Amp-3 
Leaflet_Instance.51,1,1,0.000000 
Leaflet_Instance.51,2,2,0.000000 
Leaflet_Instance.51,3,3,0.000000 
*Boundary,amplitude=Amp-3 
Leaflet_Instance.52,1,1,0.000000 
Leaflet_Instance.52,2,2,0.000000 
Leaflet_Instance.52,3,3,0.000000 
*Boundary,amplitude=Amp-3 
Leaflet_Instance.53,1,1,0.000000 
Leaflet_Instance.53,2,2,0.000000 
Leaflet_Instance.53,3,3,0.000000 
*Boundary,amplitude=Amp-3 
Leaflet_Instance.54,1,1,0.000000 
Leaflet_Instance.54,2,2,0.000000 
Leaflet_Instance.54,3,3,0.000000 
*Boundary,amplitude=Amp-3 
Leaflet_Instance.1291,1,1,0.000000 
Leaflet_Instance.1291,2,2,0.000000 
Leaflet_Instance.1291,3,3,0.000000 
*Boundary,amplitude=Amp-3 
Leaflet_Instance.1292,1,1,0.000000 
Leaflet_Instance.1292,2,2,0.000000 
Leaflet_Instance.1292,3,3,0.000000 
*Boundary,amplitude=Amp-3 
Leaflet_Instance.1293,1,1,0.000000 
Leaflet_Instance.1293,2,2,0.000000 
Leaflet_Instance.1293,3,3,0.000000 
*Boundary,amplitude=Amp-3 
Leaflet_Instance.1294,1,1,0.000000 
Leaflet_Instance.1294,2,2,0.000000 
Leaflet_Instance.1294,3,3,0.000000 
*Boundary,amplitude=Amp-3 
Leaflet_Instance.1295,1,1,0.000000 
Leaflet_Instance.1295,2,2,0.000000 
Leaflet_Instance.1295,3,3,0.000000 
*Boundary,amplitude=Amp-3 
Leaflet_Instance.1296,1,1,0.000000 
Leaflet_Instance.1296,2,2,0.000000 
Leaflet_Instance.1296,3,3,0.000000 
*Boundary,amplitude=Amp-3 
Leaflet_Instance.1297,1,1,0.000000 
Leaflet_Instance.1297,2,2,0.000000 
Leaflet_Instance.1297,3,3,0.000000 
*Boundary,amplitude=Amp-3 
Leaflet_Instance.1298,1,1,0.000000 
Leaflet_Instance.1298,2,2,0.000000 
Leaflet_Instance.1298,3,3,0.000000 
*Boundary,amplitude=Amp-3 
Leaflet_Instance.1299,1,1,0.000000 
Leaflet_Instance.1299,2,2,0.000000 
Leaflet_Instance.1299,3,3,0.000000 
*Boundary,amplitude=Amp-3 
Leaflet_Instance.1300,1,1,0.000000 
Leaflet_Instance.1300,2,2,0.000000 
Leaflet_Instance.1300,3,3,0.000000 
*Boundary,amplitude=Amp-3 
Leaflet_Instance.1301,1,1,0.000000 
Leaflet_Instance.1301,2,2,0.000000 
Leaflet_Instance.1301,3,3,0.000000 
*Boundary,amplitude=Amp-3 
Leaflet_Instance.1302,1,1,0.000000 
Leaflet_Instance.1302,2,2,0.000000 
Leaflet_Instance.1302,3,3,0.000000 
*Boundary,amplitude=Amp-3 
Leaflet_Instance.1303,1,1,0.000000 
Leaflet_Instance.1303,2,2,0.000000 
Leaflet_Instance.1303,3,3,0.000000 
*Boundary,amplitude=Amp-3 
Leaflet_Instance.1304,1,1,0.000000 
Leaflet_Instance.1304,2,2,0.000000 
Leaflet_Instance.1304,3,3,0.000000 
*Boundary,amplitude=Amp-3 
Leaflet_Instance.1305,1,1,0.000000 
Leaflet_Instance.1305,2,2,0.000000 
Leaflet_Instance.1305,3,3,0.000000 
*Boundary,amplitude=Amp-3 
Leaflet_Instance.1306,1,1,0.000000 
Leaflet_Instance.1306,2,2,0.000000 
Leaflet_Instance.1306,3,3,0.000000 
*Boundary,amplitude=Amp-3 
Leaflet_Instance.1307,1,1,0.000000 
Leaflet_Instance.1307,2,2,0.000000 
Leaflet_Instance.1307,3,3,0.000000 
*Boundary,amplitude=Amp-3 
Leaflet_Instance.1308,1,1,0.000000 
Leaflet_Instance.1308,2,2,0.000000 
Leaflet_Instance.1308,3,3,0.000000 
*Boundary,amplitude=Amp-3 
Leaflet_Instance.1309,1,1,0.000000 
Leaflet_Instance.1309,2,2,0.000000 
Leaflet_Instance.1309,3,3,0.000000 
*Boundary,amplitude=Amp-3 
Leaflet_Instance.1310,1,1,0.000000 
Leaflet_Instance.1310,2,2,0.000000 
Leaflet_Instance.1310,3,3,0.000000 
*Boundary,amplitude=Amp-3 
Leaflet_Instance.1311,1,1,0.000000 
Leaflet_Instance.1311,2,2,0.000000 
Leaflet_Instance.1311,3,3,0.000000 
*Boundary,amplitude=Amp-3 
Leaflet_Instance.1312,1,1,0.000000 
Leaflet_Instance.1312,2,2,0.000000 
Leaflet_Instance.1312,3,3,0.000000 
*Boundary,amplitude=Amp-3 
Leaflet_Instance.1313,1,1,0.000000 
Leaflet_Instance.1313,2,2,0.000000 
Leaflet_Instance.1313,3,3,0.000000 
*Boundary,amplitude=Amp-3 
Leaflet_Instance.1314,1,1,0.000000 
Leaflet_Instance.1314,2,2,0.000000 
Leaflet_Instance.1314,3,3,0.000000 
*Boundary,amplitude=Amp-3 
Leaflet_Instance.1315,1,1,0.000000 
Leaflet_Instance.1315,2,2,0.000000 
Leaflet_Instance.1315,3,3,0.000000 
*Boundary,amplitude=Amp-3 
Leaflet_Instance.1316,1,1,0.000000 
Leaflet_Instance.1316,2,2,0.000000 
Leaflet_Instance.1316,3,3,0.000000 
*Boundary,amplitude=Amp-3 
Leaflet_Instance.1317,1,1,0.000000 
Leaflet_Instance.1317,2,2,0.000000 
Leaflet_Instance.1317,3,3,0.000000 
*Boundary,amplitude=Amp-3 
Leaflet_Instance.1318,1,1,0.000000 
Leaflet_Instance.1318,2,2,0.000000 
Leaflet_Instance.1318,3,3,0.000000 
*Boundary,amplitude=Amp-3 
Leaflet_Instance.1319,1,1,0.000000 
Leaflet_Instance.1319,2,2,0.000000 
Leaflet_Instance.1319,3,3,0.000000 
*Boundary,amplitude=Amp-3 
Leaflet_Instance.1320,1,1,0.000000 
Leaflet_Instance.1320,2,2,0.000000 
Leaflet_Instance.1320,3,3,0.000000 
*Boundary,amplitude=Amp-3 
Leaflet_Instance.1321,1,1,0.000000 
Leaflet_Instance.1321,2,2,0.000000 
Leaflet_Instance.1321,3,3,0.000000 
*Boundary,amplitude=Amp-3 
Leaflet_Instance.1322,1,1,0.000000 
Leaflet_Instance.1322,2,2,0.000000 
Leaflet_Instance.1322,3,3,0.000000 
*Boundary,amplitude=Amp-3 
Leaflet_Instance.1323,1,1,0.000000 
Leaflet_Instance.1323,2,2,0.000000 
Leaflet_Instance.1323,3,3,0.000000 
*Boundary,amplitude=Amp-3 
Leaflet_Instance.1324,1,1,0.000000 
Leaflet_Instance.1324,2,2,0.000000 
Leaflet_Instance.1324,3,3,0.000000 
*Boundary,amplitude=Amp-3 
Leaflet_Instance.1325,1,1,0.000000 
Leaflet_Instance.1325,2,2,0.000000 
Leaflet_Instance.1325,3,3,0.000000 
*Boundary,amplitude=Amp-3 
Leaflet_Instance.1326,1,1,0.000000 
Leaflet_Instance.1326,2,2,0.000000 
Leaflet_Instance.1326,3,3,0.000000 
*Boundary,amplitude=Amp-3 
Leaflet_Instance.1327,1,1,0.000000 
Leaflet_Instance.1327,2,2,0.000000 
Leaflet_Instance.1327,3,3,0.000000 
*Boundary,amplitude=Amp-3 
Leaflet_Instance.1328,1,1,0.000000 
Leaflet_Instance.1328,2,2,0.000000 
Leaflet_Instance.1328,3,3,0.000000 
*Boundary,amplitude=Amp-3 
Leaflet_Instance.1329,1,1,0.000000 
Leaflet_Instance.1329,2,2,0.000000 
Leaflet_Instance.1329,3,3,0.000000 
*Boundary,amplitude=Amp-3 
Leaflet_Instance.1330,1,1,0.000000 
Leaflet_Instance.1330,2,2,0.000000 
Leaflet_Instance.1330,3,3,0.000000 
*Boundary,amplitude=Amp-3 
Leaflet_Instance.2267,1,1,0.000000 
Leaflet_Instance.2267,2,2,0.000000 
Leaflet_Instance.2267,3,3,0.000000 
*Boundary,amplitude=Amp-3 
Leaflet_Instance.2268,1,1,0.000000 
Leaflet_Instance.2268,2,2,0.000000 
Leaflet_Instance.2268,3,3,0.000000 
*Boundary,amplitude=Amp-3 
Leaflet_Instance.2269,1,1,0.000000 
Leaflet_Instance.2269,2,2,0.000000 
Leaflet_Instance.2269,3,3,0.000000 
*Boundary,amplitude=Amp-3 
Leaflet_Instance.2270,1,1,0.000000 
Leaflet_Instance.2270,2,2,0.000000 
Leaflet_Instance.2270,3,3,0.000000 
*Boundary,amplitude=Amp-3 
Leaflet_Instance.2271,1,1,0.000000 
Leaflet_Instance.2271,2,2,0.000000 
Leaflet_Instance.2271,3,3,0.000000 
*Boundary,amplitude=Amp-3 
Leaflet_Instance.2272,1,1,0.000000 
Leaflet_Instance.2272,2,2,0.000000 
Leaflet_Instance.2272,3,3,0.000000 
*Boundary,amplitude=Amp-3 
Leaflet_Instance.2273,1,1,0.000000 
Leaflet_Instance.2273,2,2,0.000000 
Leaflet_Instance.2273,3,3,0.000000 
*Boundary,amplitude=Amp-3 
Leaflet_Instance.2274,1,1,0.000000 
Leaflet_Instance.2274,2,2,0.000000 
Leaflet_Instance.2274,3,3,0.000000 
*Boundary,amplitude=Amp-3 
Leaflet_Instance.2275,1,1,0.000000 
Leaflet_Instance.2275,2,2,0.000000 
Leaflet_Instance.2275,3,3,0.000000 
*Boundary,amplitude=Amp-3 
Leaflet_Instance.2276,1,1,0.000000 
Leaflet_Instance.2276,2,2,0.000000 
Leaflet_Instance.2276,3,3,0.000000 
*Boundary,amplitude=Amp-3 
Leaflet_Instance.2277,1,1,0.000000 
Leaflet_Instance.2277,2,2,0.000000 
Leaflet_Instance.2277,3,3,0.000000 
*Boundary,amplitude=Amp-3 
Leaflet_Instance.2278,1,1,0.000000 
Leaflet_Instance.2278,2,2,0.000000 
Leaflet_Instance.2278,3,3,0.000000 
*Boundary,amplitude=Amp-3 
Leaflet_Instance.2279,1,1,0.000000 
Leaflet_Instance.2279,2,2,0.000000 
Leaflet_Instance.2279,3,3,0.000000 
*Boundary,amplitude=Amp-3 
Leaflet_Instance.2280,1,1,0.000000 
Leaflet_Instance.2280,2,2,0.000000 
Leaflet_Instance.2280,3,3,0.000000 
*Boundary,amplitude=Amp-3 
Leaflet_Instance.2281,1,1,0.000000 
Leaflet_Instance.2281,2,2,0.000000 
Leaflet_Instance.2281,3,3,0.000000 
*Boundary,amplitude=Amp-3 
Leaflet_Instance.2282,1,1,0.000000 
Leaflet_Instance.2282,2,2,0.000000 
Leaflet_Instance.2282,3,3,0.000000 
*Boundary,amplitude=Amp-3 
Leaflet_Instance.2283,1,1,0.000000 
Leaflet_Instance.2283,2,2,0.000000 
Leaflet_Instance.2283,3,3,0.000000 
*Boundary,amplitude=Amp-3 
Leaflet_Instance.2284,1,1,0.000000 
Leaflet_Instance.2284,2,2,0.000000 
Leaflet_Instance.2284,3,3,0.000000 
*Boundary,amplitude=Amp-3 
Leaflet_Instance.2285,1,1,0.000000 
Leaflet_Instance.2285,2,2,0.000000 
Leaflet_Instance.2285,3,3,0.000000 
*Boundary,amplitude=Amp-3 
Leaflet_Instance.2286,1,1,0.000000 
Leaflet_Instance.2286,2,2,0.000000 
Leaflet_Instance.2286,3,3,0.000000 
*Boundary,amplitude=Amp-3 
Leaflet_Instance.2287,1,1,0.000000 
Leaflet_Instance.2287,2,2,0.000000 
Leaflet_Instance.2287,3,3,0.000000 
*Boundary,amplitude=Amp-3 
Leaflet_Instance.2288,1,1,0.000000 
Leaflet_Instance.2288,2,2,0.000000 
Leaflet_Instance.2288,3,3,0.000000 
*Boundary,amplitude=Amp-3 
Leaflet_Instance.2289,1,1,0.000000 
Leaflet_Instance.2289,2,2,0.000000 
Leaflet_Instance.2289,3,3,0.000000 
*Boundary,amplitude=Amp-3 
Leaflet_Instance.2290,1,1,0.000000 
Leaflet_Instance.2290,2,2,0.000000 
Leaflet_Instance.2290,3,3,0.000000 
*Boundary,amplitude=Amp-3 
Leaflet_Instance.2291,1,1,0.000000 
Leaflet_Instance.2291,2,2,0.000000 
Leaflet_Instance.2291,3,3,0.000000 
*Boundary,amplitude=Amp-3 
Leaflet_Instance.2292,1,1,0.000000 
Leaflet_Instance.2292,2,2,0.000000 
Leaflet_Instance.2292,3,3,0.000000 
*Boundary,amplitude=Amp-3 
Leaflet_Instance.2293,1,1,0.000000 
Leaflet_Instance.2293,2,2,0.000000 
Leaflet_Instance.2293,3,3,0.000000 
*Boundary,amplitude=Amp-3 
Leaflet_Instance.2294,1,1,0.000000 
Leaflet_Instance.2294,2,2,0.000000 
Leaflet_Instance.2294,3,3,0.000000 
*Boundary,amplitude=Amp-3 
Leaflet_Instance.2295,1,1,0.000000 
Leaflet_Instance.2295,2,2,0.000000 
Leaflet_Instance.2295,3,3,0.000000 
*Boundary,amplitude=Amp-3 
Leaflet_Instance.2296,1,1,0.000000 
Leaflet_Instance.2296,2,2,0.000000 
Leaflet_Instance.2296,3,3,0.000000 
*Boundary,amplitude=Amp-3 
Leaflet_Instance.2297,1,1,0.000000 
Leaflet_Instance.2297,2,2,0.000000 
Leaflet_Instance.2297,3,3,0.000000 
*Boundary,amplitude=Amp-3 
Leaflet_Instance.2298,1,1,0.000000 
Leaflet_Instance.2298,2,2,0.000000 
Leaflet_Instance.2298,3,3,0.000000 
*Boundary,amplitude=Amp-3 
Leaflet_Instance.2299,1,1,0.000000 
Leaflet_Instance.2299,2,2,0.000000 
Leaflet_Instance.2299,3,3,0.000000 
*Boundary,amplitude=Amp-3 
Leaflet_Instance.2300,1,1,0.000000 
Leaflet_Instance.2300,2,2,0.000000 
Leaflet_Instance.2300,3,3,0.000000 
*Boundary,amplitude=Amp-3 
Leaflet_Instance.2301,1,1,0.000000 
Leaflet_Instance.2301,2,2,0.000000 
Leaflet_Instance.2301,3,3,0.000000 
*Boundary,amplitude=Amp-3 
Leaflet_Instance.2302,1,1,0.000000 
Leaflet_Instance.2302,2,2,0.000000 
Leaflet_Instance.2302,3,3,0.000000 
*Boundary,amplitude=Amp-3 
Leaflet_Instance.2303,1,1,0.000000 
Leaflet_Instance.2303,2,2,0.000000 
Leaflet_Instance.2303,3,3,0.000000 
*Boundary,amplitude=Amp-3 
Leaflet_Instance.2304,1,1,0.000000 
Leaflet_Instance.2304,2,2,0.000000 
Leaflet_Instance.2304,3,3,0.000000 
*Boundary,amplitude=Amp-3 
Leaflet_Instance.2305,1,1,0.000000 
Leaflet_Instance.2305,2,2,0.000000 
Leaflet_Instance.2305,3,3,0.000000 
*Boundary,amplitude=Amp-3 
Leaflet_Instance.2306,1,1,0.000000 
Leaflet_Instance.2306,2,2,0.000000 
Leaflet_Instance.2306,3,3,0.000000 
*Boundary,amplitude=Amp-3 
Leaflet_Instance.2307,1,1,0.000000 
Leaflet_Instance.2307,2,2,0.000000 
Leaflet_Instance.2307,3,3,0.000000 
*Boundary,amplitude=Amp-3 
Leaflet_Instance.2308,1,1,0.000000 
Leaflet_Instance.2308,2,2,0.000000 
Leaflet_Instance.2308,3,3,0.000000 
*Boundary,amplitude=Amp-3 
Leaflet_Instance.2309,1,1,0.000000 
Leaflet_Instance.2309,2,2,0.000000 
Leaflet_Instance.2309,3,3,0.000000 
*Boundary,amplitude=Amp-3 
Leaflet_Instance.2310,1,1,0.000000 
Leaflet_Instance.2310,2,2,0.000000 
Leaflet_Instance.2310,3,3,0.000000 
*Boundary,amplitude=Amp-3 
Leaflet_Instance.2311,1,1,0.000000 
Leaflet_Instance.2311,2,2,0.000000 
Leaflet_Instance.2311,3,3,0.000000 
*Boundary,amplitude=Amp-3 
Leaflet_Instance.2312,1,1,0.000000 
Leaflet_Instance.2312,2,2,0.000000 
Leaflet_Instance.2312,3,3,0.000000 
*Boundary,amplitude=Amp-3 
Leaflet_Instance.2313,1,1,0.000000 
Leaflet_Instance.2313,2,2,0.000000 
Leaflet_Instance.2313,3,3,0.000000 
*Boundary,amplitude=Amp-3 
Leaflet_Instance.2314,1,1,0.000000 
Leaflet_Instance.2314,2,2,0.000000 
Leaflet_Instance.2314,3,3,0.000000 
*Boundary,amplitude=Amp-3 
Leaflet_Instance.2315,1,1,0.000000 
Leaflet_Instance.2315,2,2,0.000000 
Leaflet_Instance.2315,3,3,0.000000 
*Boundary,amplitude=Amp-3 
Leaflet_Instance.2316,1,1,0.000000 
Leaflet_Instance.2316,2,2,0.000000 
Leaflet_Instance.2316,3,3,0.000000 
*Boundary,amplitude=Amp-3 
Leaflet_Instance.2317,1,1,0.000000 
Leaflet_Instance.2317,2,2,0.000000 
Leaflet_Instance.2317,3,3,0.000000 
*Boundary,amplitude=Amp-3 
Leaflet_Instance.2318,1,1,0.000000 
Leaflet_Instance.2318,2,2,0.000000 
Leaflet_Instance.2318,3,3,0.000000 
*Boundary,amplitude=Amp-3 
Leaflet_Instance.2319,1,1,0.000000 
Leaflet_Instance.2319,2,2,0.000000 
Leaflet_Instance.2319,3,3,0.000000 
*Boundary,amplitude=Amp-3 
Leaflet_Instance.2320,1,1,0.000000 
Leaflet_Instance.2320,2,2,0.000000 
Leaflet_Instance.2320,3,3,0.000000 
*Boundary,amplitude=Amp-3 
Leaflet_Instance.2321,1,1,0.000000 
Leaflet_Instance.2321,2,2,0.000000 
Leaflet_Instance.2321,3,3,0.000000 
*Boundary,amplitude=Amp-3 
Leaflet_Instance.2322,1,1,0.000000 
Leaflet_Instance.2322,2,2,0.000000 
Leaflet_Instance.2322,3,3,0.000000 
*Boundary,amplitude=Amp-3 
Leaflet_Instance.2323,1,1,0.000000 
Leaflet_Instance.2323,2,2,0.000000 
Leaflet_Instance.2323,3,3,0.000000 
*Boundary,amplitude=Amp-3 
Leaflet_Instance.2324,1,1,0.000000 
Leaflet_Instance.2324,2,2,0.000000 
Leaflet_Instance.2324,3,3,0.000000 
*Boundary,amplitude=Amp-3 
Leaflet_Instance.2325,1,1,0.000000 
Leaflet_Instance.2325,2,2,0.000000 
Leaflet_Instance.2325,3,3,0.000000 
*Boundary,amplitude=Amp-3 
Leaflet_Instance.2326,1,1,0.000000 
Leaflet_Instance.2326,2,2,0.000000 
Leaflet_Instance.2326,3,3,0.000000 
*Boundary,amplitude=Amp-3 
Leaflet_Instance.2327,1,1,0.000000 
Leaflet_Instance.2327,2,2,0.000000 
Leaflet_Instance.2327,3,3,0.000000 
*Boundary,amplitude=Amp-3 
Leaflet_Instance.2328,1,1,0.000000 
Leaflet_Instance.2328,2,2,0.000000 
Leaflet_Instance.2328,3,3,0.000000 
*Boundary,amplitude=Amp-3 
Leaflet_Instance.2329,1,1,0.000000 
Leaflet_Instance.2329,2,2,0.000000 
Leaflet_Instance.2329,3,3,0.000000 
*Boundary,amplitude=Amp-3 
Leaflet_Instance.2330,1,1,0.000000 
Leaflet_Instance.2330,2,2,0.000000 
Leaflet_Instance.2330,3,3,0.000000 
*Boundary,amplitude=Amp-3 
Leaflet_Instance.2331,1,1,0.000000 
Leaflet_Instance.2331,2,2,0.000000 
Leaflet_Instance.2331,3,3,0.000000 
*Boundary,amplitude=Amp-3 
Leaflet_Instance.2332,1,1,0.000000 
Leaflet_Instance.2332,2,2,0.000000 
Leaflet_Instance.2332,3,3,0.000000 
*Boundary,amplitude=Amp-3 
Leaflet_Instance.2333,1,1,0.000000 
Leaflet_Instance.2333,2,2,0.000000 
Leaflet_Instance.2333,3,3,0.000000 
*Boundary,amplitude=Amp-3 
Leaflet_Instance.2334,1,1,0.000000 
Leaflet_Instance.2334,2,2,0.000000 
Leaflet_Instance.2334,3,3,0.000000 
*Boundary,amplitude=Amp-3 
Leaflet_Instance.2335,1,1,0.000000 
Leaflet_Instance.2335,2,2,0.000000 
Leaflet_Instance.2335,3,3,0.000000 
*Boundary,amplitude=Amp-3 
Leaflet_Instance.2336,1,1,0.000000 
Leaflet_Instance.2336,2,2,0.000000 
Leaflet_Instance.2336,3,3,0.000000 
*Boundary,amplitude=Amp-3 
Leaflet_Instance.2337,1,1,0.000000 
Leaflet_Instance.2337,2,2,0.000000 
Leaflet_Instance.2337,3,3,0.000000 
*Boundary,amplitude=Amp-3 
Leaflet_Instance.2338,1,1,0.000000 
Leaflet_Instance.2338,2,2,0.000000 
Leaflet_Instance.2338,3,3,0.000000 
*Boundary,amplitude=Amp-3 
Leaflet_Instance.2339,1,1,0.000000 
Leaflet_Instance.2339,2,2,0.000000 
Leaflet_Instance.2339,3,3,0.000000 
*Boundary,amplitude=Amp-3 
Leaflet_Instance.2340,1,1,0.000000 
Leaflet_Instance.2340,2,2,0.000000 
Leaflet_Instance.2340,3,3,0.000000 
*Boundary,amplitude=Amp-3 
Leaflet_Instance.2341,1,1,0.000000 
Leaflet_Instance.2341,2,2,0.000000 
Leaflet_Instance.2341,3,3,0.000000 
*Boundary,amplitude=Amp-3 
Leaflet_Instance.2342,1,1,0.000000 
Leaflet_Instance.2342,2,2,0.000000 
Leaflet_Instance.2342,3,3,0.000000 
*Boundary,amplitude=Amp-3 
Leaflet_Instance.2343,1,1,0.000000 
Leaflet_Instance.2343,2,2,0.000000 
Leaflet_Instance.2343,3,3,0.000000 
*Boundary,amplitude=Amp-3 
Leaflet_Instance.2344,1,1,0.000000 
Leaflet_Instance.2344,2,2,0.000000 
Leaflet_Instance.2344,3,3,0.000000 
*Boundary,amplitude=Amp-3 
Leaflet_Instance.2345,1,1,0.000000 
Leaflet_Instance.2345,2,2,0.000000 
Leaflet_Instance.2345,3,3,0.000000 
*Boundary,amplitude=Amp-3 
Leaflet_Instance.2346,1,1,0.000000 
Leaflet_Instance.2346,2,2,0.000000 
Leaflet_Instance.2346,3,3,0.000000 
*Boundary,amplitude=Amp-3 
Leaflet_Instance.2347,1,1,0.000000 
Leaflet_Instance.2347,2,2,0.000000 
Leaflet_Instance.2347,3,3,0.000000 
*Boundary,amplitude=Amp-3 
Leaflet_Instance.2348,1,1,0.000000 
Leaflet_Instance.2348,2,2,0.000000 
Leaflet_Instance.2348,3,3,0.000000 
*Boundary,amplitude=Amp-3 
Leaflet_Instance.2349,1,1,0.000000 
Leaflet_Instance.2349,2,2,0.000000 
Leaflet_Instance.2349,3,3,0.000000 
*Boundary,amplitude=Amp-3 
Leaflet_Instance.2350,1,1,0.000000 
Leaflet_Instance.2350,2,2,0.000000 
Leaflet_Instance.2350,3,3,0.000000 
*Boundary,amplitude=Amp-3 
Leaflet_Instance.2351,1,1,0.000000 
Leaflet_Instance.2351,2,2,0.000000 
Leaflet_Instance.2351,3,3,0.000000 
*Boundary,amplitude=Amp-3 
Leaflet_Instance.2352,1,1,0.000000 
Leaflet_Instance.2352,2,2,0.000000 
Leaflet_Instance.2352,3,3,0.000000 
*Boundary,amplitude=Amp-3 
Leaflet_Instance.2353,1,1,0.000000 
Leaflet_Instance.2353,2,2,0.000000 
Leaflet_Instance.2353,3,3,0.000000 
*Boundary,amplitude=Amp-3 
Leaflet_Instance.2354,1,1,0.000000 
Leaflet_Instance.2354,2,2,0.000000 
Leaflet_Instance.2354,3,3,0.000000 
*Boundary,amplitude=Amp-3 
Leaflet_Instance.2355,1,1,0.000000 
Leaflet_Instance.2355,2,2,0.000000 
Leaflet_Instance.2355,3,3,0.000000 
*Boundary,amplitude=Amp-3 
Leaflet_Instance.2356,1,1,0.000000 
Leaflet_Instance.2356,2,2,0.000000 
Leaflet_Instance.2356,3,3,0.000000 
*Boundary,amplitude=Amp-3 
Leaflet_Instance.2357,1,1,0.000000 
Leaflet_Instance.2357,2,2,0.000000 
Leaflet_Instance.2357,3,3,0.000000 
*Boundary,amplitude=Amp-3 
Leaflet_Instance.2358,1,1,0.000000 
Leaflet_Instance.2358,2,2,0.000000 
Leaflet_Instance.2358,3,3,0.000000 
*Boundary,amplitude=Amp-3 
Leaflet_Instance.2359,1,1,0.000000 
Leaflet_Instance.2359,2,2,0.000000 
Leaflet_Instance.2359,3,3,0.000000 
*Boundary,amplitude=Amp-3 
Leaflet_Instance.2360,1,1,0.000000 
Leaflet_Instance.2360,2,2,0.000000 
Leaflet_Instance.2360,3,3,0.000000 
*Boundary,amplitude=Amp-3 
Leaflet_Instance.2361,1,1,0.000000 
Leaflet_Instance.2361,2,2,0.000000 
Leaflet_Instance.2361,3,3,0.000000 
*Boundary,amplitude=Amp-3 
Leaflet_Instance.2362,1,1,0.000000 
Leaflet_Instance.2362,2,2,0.000000 
Leaflet_Instance.2362,3,3,0.000000 
*Boundary,amplitude=Amp-3 
Leaflet_Instance.2363,1,1,0.000000 
Leaflet_Instance.2363,2,2,0.000000 
Leaflet_Instance.2363,3,3,0.000000 
*Boundary,amplitude=Amp-3 
Leaflet_Instance.2364,1,1,0.000000 
Leaflet_Instance.2364,2,2,0.000000 
Leaflet_Instance.2364,3,3,0.000000 
*Boundary,amplitude=Amp-3 
Leaflet_Instance.2365,1,1,0.000000 
Leaflet_Instance.2365,2,2,0.000000 
Leaflet_Instance.2365,3,3,0.000000 
*Boundary,amplitude=Amp-3 
Leaflet_Instance.2366,1,1,0.000000 
Leaflet_Instance.2366,2,2,0.000000 
Leaflet_Instance.2366,3,3,0.000000 
*Boundary,amplitude=Amp-3 
Leaflet_Instance.2367,1,1,0.000000 
Leaflet_Instance.2367,2,2,0.000000 
Leaflet_Instance.2367,3,3,0.000000 
*Boundary,amplitude=Amp-3 
Leaflet_Instance.2368,1,1,0.000000 
Leaflet_Instance.2368,2,2,0.000000 
Leaflet_Instance.2368,3,3,0.000000 
*Boundary,amplitude=Amp-3 
Leaflet_Instance.2369,1,1,0.000000 
Leaflet_Instance.2369,2,2,0.000000 
Leaflet_Instance.2369,3,3,0.000000 
*Boundary,amplitude=Amp-3 
Leaflet_Instance.2370,1,1,0.000000 
Leaflet_Instance.2370,2,2,0.000000 
Leaflet_Instance.2370,3,3,0.000000 
*Boundary,amplitude=Amp-3 
Leaflet_Instance.2371,1,1,0.000000 
Leaflet_Instance.2371,2,2,0.000000 
Leaflet_Instance.2371,3,3,0.000000 
*Boundary,amplitude=Amp-3 
Leaflet_Instance.2372,1,1,0.000000 
Leaflet_Instance.2372,2,2,0.000000 
Leaflet_Instance.2372,3,3,0.000000 
*Boundary,amplitude=Amp-3 
Leaflet_Instance.2373,1,1,0.000000 
Leaflet_Instance.2373,2,2,0.000000 
Leaflet_Instance.2373,3,3,0.000000 
*Boundary,amplitude=Amp-3 
Leaflet_Instance.2374,1,1,0.000000 
Leaflet_Instance.2374,2,2,0.000000 
Leaflet_Instance.2374,3,3,0.000000 
*Boundary,amplitude=Amp-3 
Leaflet_Instance.24886,1,1,0.000000 
Leaflet_Instance.24886,2,2,0.000000 
Leaflet_Instance.24886,3,3,-14.000000 
*Boundary,amplitude=Amp-3 
Leaflet_Instance.24897,1,1,0.000000 
Leaflet_Instance.24897,2,2,0.000000 
Leaflet_Instance.24897,3,3,-14.000000 
*Boundary,amplitude=Amp-3 
Leaflet_Instance.24908,1,1,0.000000 
Leaflet_Instance.24908,2,2,0.000000 
Leaflet_Instance.24908,3,3,-14.000000 
*Boundary,amplitude=Amp-3 
Leaflet_Instance.25515,1,1,0.000000 
Leaflet_Instance.25515,2,2,0.000000 
Leaflet_Instance.25515,3,3,-14.000000 
*Boundary,amplitude=Amp-3 
Leaflet_Instance.25525,1,1,0.000000 
Leaflet_Instance.25525,2,2,0.000000 
Leaflet_Instance.25525,3,3,-14.000000 
*Boundary,amplitude=Amp-3 
Leaflet_Instance.25535,1,1,0.000000 
Leaflet_Instance.25535,2,2,0.000000 
Leaflet_Instance.25535,3,3,-14.000000 
*Boundary,amplitude=Amp-3 
Leaflet_Instance.25545,1,1,0.000000 
Leaflet_Instance.25545,2,2,0.000000 
Leaflet_Instance.25545,3,3,-14.000000 
*Boundary,amplitude=Amp-3 
Leaflet_Instance.25555,1,1,0.000000 
Leaflet_Instance.25555,2,2,0.000000 
Leaflet_Instance.25555,3,3,-14.000000 
*Boundary,amplitude=Amp-3 
Leaflet_Instance.25565,1,1,0.000000 
Leaflet_Instance.25565,2,2,0.000000 
Leaflet_Instance.25565,3,3,-14.000000 
*Boundary,amplitude=Amp-3 
Leaflet_Instance.25575,1,1,0.000000 
Leaflet_Instance.25575,2,2,0.000000 
Leaflet_Instance.25575,3,3,-14.000000 
*Boundary,amplitude=Amp-3 
Leaflet_Instance.25585,1,1,0.000000 
Leaflet_Instance.25585,2,2,0.000000 
Leaflet_Instance.25585,3,3,-14.000000 
*Boundary,amplitude=Amp-3 
Leaflet_Instance.25595,1,1,0.000000 
Leaflet_Instance.25595,2,2,0.000000 
Leaflet_Instance.25595,3,3,-14.000000 
*Boundary,amplitude=Amp-3 
Leaflet_Instance.25605,1,1,0.000000 
Leaflet_Instance.25605,2,2,0.000000 
Leaflet_Instance.25605,3,3,-14.000000 
*Boundary,amplitude=Amp-3 
Leaflet_Instance.25615,1,1,0.000000 
Leaflet_Instance.25615,2,2,0.000000 
Leaflet_Instance.25615,3,3,-14.000000 
*Boundary,amplitude=Amp-3 
Leaflet_Instance.25625,1,1,0.000000 
Leaflet_Instance.25625,2,2,0.000000 
Leaflet_Instance.25625,3,3,-14.000000 
*Boundary,amplitude=Amp-3 
Leaflet_Instance.25635,1,1,0.000000 
Leaflet_Instance.25635,2,2,0.000000 
Leaflet_Instance.25635,3,3,-14.000000 
*Boundary,amplitude=Amp-3 
Leaflet_Instance.25645,1,1,0.000000 
Leaflet_Instance.25645,2,2,0.000000 
Leaflet_Instance.25645,3,3,-14.000000 
*Boundary,amplitude=Amp-3 
Leaflet_Instance.25655,1,1,0.000000 
Leaflet_Instance.25655,2,2,0.000000 
Leaflet_Instance.25655,3,3,-14.000000 
*Boundary,amplitude=Amp-3 
Leaflet_Instance.25665,1,1,0.000000 
Leaflet_Instance.25665,2,2,0.000000 
Leaflet_Instance.25665,3,3,-14.000000 
*Boundary,amplitude=Amp-3 
Leaflet_Instance.25675,1,1,0.000000 
Leaflet_Instance.25675,2,2,0.000000 
Leaflet_Instance.25675,3,3,-14.000000 
*Boundary,amplitude=Amp-3 
Leaflet_Instance.25685,1,1,0.000000 
Leaflet_Instance.25685,2,2,0.000000 
Leaflet_Instance.25685,3,3,-14.000000 
*Boundary,amplitude=Amp-3 
Leaflet_Instance.25695,1,1,0.000000 
Leaflet_Instance.25695,2,2,0.000000 
Leaflet_Instance.25695,3,3,-14.000000 
*Boundary,amplitude=Amp-3 
Leaflet_Instance.25705,1,1,0.000000 
Leaflet_Instance.25705,2,2,0.000000 
Leaflet_Instance.25705,3,3,-14.000000 
*Boundary,amplitude=Amp-3 
Leaflet_Instance.25715,1,1,0.000000 
Leaflet_Instance.25715,2,2,0.000000 
Leaflet_Instance.25715,3,3,-14.000000 
*Boundary,amplitude=Amp-3 
Leaflet_Instance.25725,1,1,0.000000 
Leaflet_Instance.25725,2,2,0.000000 
Leaflet_Instance.25725,3,3,-14.000000 
*Boundary,amplitude=Amp-3 
Leaflet_Instance.25735,1,1,0.000000 
Leaflet_Instance.25735,2,2,0.000000 
Leaflet_Instance.25735,3,3,-14.000000 
*Boundary,amplitude=Amp-3 
Leaflet_Instance.25745,1,1,0.000000 
Leaflet_Instance.25745,2,2,0.000000 
Leaflet_Instance.25745,3,3,-14.000000 
*Boundary,amplitude=Amp-3 
Leaflet_Instance.25755,1,1,0.000000 
Leaflet_Instance.25755,2,2,0.000000 
Leaflet_Instance.25755,3,3,-14.000000 
*Boundary,amplitude=Amp-3 
Leaflet_Instance.25765,1,1,0.000000 
Leaflet_Instance.25765,2,2,0.000000 
Leaflet_Instance.25765,3,3,-14.000000 
*Boundary,amplitude=Amp-3 
Leaflet_Instance.25775,1,1,0.000000 
Leaflet_Instance.25775,2,2,0.000000 
Leaflet_Instance.25775,3,3,-14.000000 
*Boundary,amplitude=Amp-3 
Leaflet_Instance.25785,1,1,0.000000 
Leaflet_Instance.25785,2,2,0.000000 
Leaflet_Instance.25785,3,3,-14.000000 
*Boundary,amplitude=Amp-3 
Leaflet_Instance.25795,1,1,0.000000 
Leaflet_Instance.25795,2,2,0.000000 
Leaflet_Instance.25795,3,3,-14.000000 
*Boundary,amplitude=Amp-3 
Clip-1-1_RPSet,6,6,0.000000 
*Boundary,amplitude=Amp-3 
Clip-1-2_RPSet,6,6,-0.000000 
*Boundary,amplitude=Amp-3 
Clip-2-1_RPSet,6,6,0.000000 
*Boundary,amplitude=Amp-3 
Clip-2-2_RPSet,6,6,-0.000000 
*Dsload,amplitude=Amp-1 
Leaflet_Surfaces_OUTER, P, 0.005670
*Contact Pair, interaction=Interaction_Property,mechanical constraint=KINEMATIC, cpset=INTERACTION_PROPERTY-1-1 
LEAFLET_SURFACES_INNER, 
*Contact Pair, interaction=INTERACTION_PROPERTY, mechanical constraint=KINEMATIC, cpset=Int-3
LEAFLET_RIM_TIP,
*Contact, op=NEW
*Contact Inclusions
LEAFLET_RIM_TIP , LEAFLET_SURFACES_INNER
*Contact Property Assignment
 ,  , INTERACTION_PROPERTY
*Output, field, variable=PRESELECT 
*Output, history, variable=PRESELECT 
*Output, history 
*Contact Output, cpset=INTERACTION_PROPERTY-1-1 
CAREA, 
*End Step
*Step, name="Clip capture", nlgeom=YES 
*Dynamic, Explicit 
, 0.5 
*Bulk Viscosity 
0.5, 1.2 
*VARIABLE MASS SCALING, TYPE=UNIFORM, FREQUENCY=10000, DT=5e-7
*Dsload,amplitude=s2_Amp-1 
Leaflet_Surfaces_OUTER, P, 0.005670
*Contact Pair, interaction=Rough_Interaction, mechanical constraint=PENALTY, cpset=Clip-1-1_Contact
CLIP-1-1.Contact_Surf, LEAFLET_SURFACES_OUTER
*Contact Pair, interaction=Rough_Interaction, mechanical constraint=PENALTY, cpset=Clip-1-2_Contact
CLIP-1-2.Contact_Surf, LEAFLET_SURFACES_OUTER
*Contact Pair, interaction=Rough_Interaction, mechanical constraint=PENALTY, cpset=Clip-2-1_Contact
CLIP-2-1.Contact_Surf, LEAFLET_SURFACES_OUTER
*Contact Pair, interaction=Rough_Interaction, mechanical constraint=PENALTY, cpset=Clip-2-2_Contact
CLIP-2-2.Contact_Surf, LEAFLET_SURFACES_OUTER
*Contact, op=NEW
*Contact Inclusions
LEAFLET_RIM_TIP , LEAFLET_SURFACES_INNER
LEAFLET_SURFACES_OUTER, CLIP-1-1.SLIDE_SURF
LEAFLET_SURFACES_OUTER, CLIP-1-2.SLIDE_SURF
LEAFLET_SURFACES_OUTER, CLIP-2-1.SLIDE_SURF
LEAFLET_SURFACES_OUTER, CLIP-2-2.SLIDE_SURF
*Contact Property Assignment
 ,  , INTERACTION_PROPERTY
*Output, field, variable=PRESELECT 
*Output, history, variable=PRESELECT 
*Output, history 
*Contact Output, cpset=INTERACTION_PROPERTY-1-1 
CAREA, 
*End Step
*Step, name="Clip close", nlgeom=YES 
*Dynamic, Explicit 
, 1. 
*Bulk Viscosity 
0.5, 1.2 
*VARIABLE MASS SCALING, TYPE=UNIFORM, FREQUENCY=10000, DT=5e-7
*Boundary,amplitude=Amp-3 
Clip-1-1_RPSet,6,6,1.134464 
*Boundary,amplitude=Amp-3 
Clip-1-2_RPSet,6,6,-1.134464 
*Boundary,amplitude=Amp-3 
Clip-2-1_RPSet,6,6,0.610865 
*Boundary,amplitude=Amp-3 
Clip-2-2_RPSet,6,6,-0.610865 
*Dsload,amplitude=Amp-1 
Leaflet_Surfaces_OUTER, P, 0.005670
*Output, field, variable=PRESELECT 
*Output, history, variable=PRESELECT 
*Output, history 
*Contact Output, cpset=INTERACTION_PROPERTY-1-1 
CAREA, 
*End Step
